<?xml version="1.0" encoding="UTF-8"?>

<!-- generated on 2023-05-12 14:31:14 by Eclipse SUMO netedit Version 1.17.0
<configuration xmlns:xsi="http://www.w3.org/2001/XMLSchema-instance" xsi:noNamespaceSchemaLocation="http://sumo.dlr.de/xsd/netconvertConfiguration.xsd">

    <input>
        <sumo-net-file value="data/cross.net.xml"/>
    </input>

    <output>
        <output-file value="data/cross.net.xml"/>
    </output>

    <processing>
        <geometry.min-radius.fix.railways value="false"/>
        <geometry.max-grade.fix value="false"/>
        <offset.disable-normalization value="true"/>
        <lefthand value="0"/>
    </processing>

    <junctions>
        <no-turnarounds value="true"/>
        <junctions.corner-detail value="0"/>
        <junctions.limit-turn-speed value="-1.00"/>
        <rectangular-lane-cut value="0"/>
    </junctions>

    <pedestrian>
        <walkingareas value="0"/>
    </pedestrian>

</configuration>
-->

<net version="1.16" xmlns:xsi="http://www.w3.org/2001/XMLSchema-instance" xsi:noNamespaceSchemaLocation="http://sumo.dlr.de/xsd/net_file.xsd">

    <location netOffset="510.00,510.00" convBoundary="390.00,400.00,620.00,620.00" origBoundary="-510.00,-510.00,510.00,510.00" projParameter="!"/>

    <edge id=":0_0" function="internal">
        <lane id=":0_0_0" index="0" speed="15.28" length="9.03" shape="508.40,517.20 508.05,514.75 507.00,513.00 505.25,511.95 502.80,511.60"/>
    </edge>
    <edge id=":0_1" function="internal">
        <lane id=":0_1_0" index="0" speed="15.28" length="14.40" shape="508.40,517.20 508.40,502.80"/>
    </edge>
    <edge id=":0_2" function="internal">
        <lane id=":0_2_0" index="0" speed="15.28" length="14.19" shape="508.40,517.20 508.95,513.35 510.60,510.60 513.35,508.95 517.20,508.40"/>
    </edge>
    <edge id=":0_3" function="internal">
        <lane id=":0_3_0" index="0" speed="15.28" length="9.03" shape="517.20,511.60 514.75,511.95 513.00,513.00 511.95,514.75 511.60,517.20"/>
    </edge>
    <edge id=":0_4" function="internal">
        <lane id=":0_4_0" index="0" speed="15.28" length="14.40" shape="517.20,511.60 502.80,511.60"/>
    </edge>
    <edge id=":0_5" function="internal">
        <lane id=":0_5_0" index="0" speed="15.28" length="14.19" shape="517.20,511.60 513.35,511.05 510.60,509.40 508.95,506.65 508.40,502.80"/>
    </edge>
    <edge id=":0_6" function="internal">
        <lane id=":0_6_0" index="0" speed="15.28" length="9.03" shape="511.60,502.80 511.95,505.25 513.00,507.00 514.75,508.05 517.20,508.40"/>
    </edge>
    <edge id=":0_7" function="internal">
        <lane id=":0_7_0" index="0" speed="15.28" length="14.40" shape="511.60,502.80 511.60,517.20"/>
    </edge>
    <edge id=":0_8" function="internal">
        <lane id=":0_8_0" index="0" speed="15.28" length="14.19" shape="511.60,502.80 511.05,506.65 509.40,509.40 506.65,511.05 502.80,511.60"/>
    </edge>
    <edge id=":0_9" function="internal">
        <lane id=":0_9_0" index="0" speed="15.28" length="9.03" shape="502.80,508.40 505.25,508.05 507.00,507.00 508.05,505.25 508.40,502.80"/>
    </edge>
    <edge id=":0_10" function="internal">
        <lane id=":0_10_0" index="0" speed="15.28" length="14.40" shape="502.80,508.40 517.20,508.40"/>
    </edge>
    <edge id=":0_11" function="internal">
        <lane id=":0_11_0" index="0" speed="15.28" length="14.19" shape="502.80,508.40 506.65,508.95 509.40,510.60 511.05,513.35 511.60,517.20"/>
    </edge>
    <edge id=":1_0" function="internal">
        <lane id=":1_0_0" index="0" speed="15.28" length="0.10" shape="400.00,511.60 400.00,511.60"/>
    </edge>
    <edge id=":1_1" function="internal">
        <lane id=":1_1_0" index="0" speed="15.28" length="2.34" shape="400.00,511.60 398.80,510.80 398.40,510.00"/>
    </edge>
    <edge id=":1_4" function="internal">
        <lane id=":1_4_0" index="0" speed="15.28" length="2.34" shape="398.40,510.00 398.80,509.20 400.00,508.40"/>
    </edge>
    <edge id=":1_2" function="internal">
        <lane id=":1_2_0" index="0" speed="15.28" length="0.10" shape="400.00,508.40 400.00,508.40"/>
    </edge>
    <edge id=":1_3" function="internal">
        <lane id=":1_3_0" index="0" speed="15.28" length="2.34" shape="400.00,508.40 401.20,509.20 401.60,510.00"/>
    </edge>
    <edge id=":1_5" function="internal">
        <lane id=":1_5_0" index="0" speed="15.28" length="2.34" shape="401.60,510.00 401.20,510.80 400.00,511.60"/>
    </edge>
    <edge id=":2_0" function="internal">
        <lane id=":2_0_0" index="0" speed="15.28" length="0.10" shape="610.00,511.60 610.00,511.60"/>
    </edge>
    <edge id=":2_1" function="internal">
        <lane id=":2_1_0" index="0" speed="15.28" length="2.34" shape="610.00,511.60 608.80,510.80 608.40,510.00"/>
    </edge>
    <edge id=":2_4" function="internal">
        <lane id=":2_4_0" index="0" speed="15.28" length="2.34" shape="608.40,510.00 608.80,509.20 610.00,508.40"/>
    </edge>
    <edge id=":2_2" function="internal">
        <lane id=":2_2_0" index="0" speed="15.28" length="0.10" shape="610.00,508.40 610.00,508.40"/>
    </edge>
    <edge id=":2_3" function="internal">
        <lane id=":2_3_0" index="0" speed="15.28" length="2.34" shape="610.00,508.40 611.20,509.20 611.60,510.00"/>
    </edge>
    <edge id=":2_5" function="internal">
        <lane id=":2_5_0" index="0" speed="15.28" length="2.34" shape="611.60,510.00 611.20,510.80 610.00,511.60"/>
    </edge>
    <edge id=":3_0" function="internal">
        <lane id=":3_0_0" index="0" speed="15.28" length="0.10" shape="508.40,410.00 508.40,410.00"/>
    </edge>
    <edge id=":3_1" function="internal">
        <lane id=":3_1_0" index="0" speed="15.28" length="2.34" shape="508.40,410.00 509.20,408.80 510.00,408.40"/>
    </edge>
    <edge id=":3_4" function="internal">
        <lane id=":3_4_0" index="0" speed="15.28" length="2.34" shape="510.00,408.40 510.80,408.80 511.60,410.00"/>
    </edge>
    <edge id=":3_2" function="internal">
        <lane id=":3_2_0" index="0" speed="15.28" length="0.10" shape="511.60,410.00 511.60,410.00"/>
    </edge>
    <edge id=":3_3" function="internal">
        <lane id=":3_3_0" index="0" speed="15.28" length="2.34" shape="511.60,410.00 510.80,411.20 510.00,411.60"/>
    </edge>
    <edge id=":3_5" function="internal">
        <lane id=":3_5_0" index="0" speed="15.28" length="2.34" shape="510.00,411.60 509.20,411.20 508.40,410.00"/>
    </edge>
    <edge id=":4_0" function="internal">
        <lane id=":4_0_0" index="0" speed="15.28" length="0.10" shape="508.40,610.00 508.40,610.00"/>
    </edge>
    <edge id=":4_1" function="internal">
        <lane id=":4_1_0" index="0" speed="15.28" length="2.34" shape="508.40,610.00 509.20,608.80 510.00,608.40"/>
    </edge>
    <edge id=":4_4" function="internal">
        <lane id=":4_4_0" index="0" speed="15.28" length="2.34" shape="510.00,608.40 510.80,608.80 511.60,610.00"/>
    </edge>
    <edge id=":4_2" function="internal">
        <lane id=":4_2_0" index="0" speed="15.28" length="0.10" shape="511.60,610.00 511.60,610.00"/>
    </edge>
    <edge id=":4_3" function="internal">
        <lane id=":4_3_0" index="0" speed="15.28" length="2.34" shape="511.60,610.00 510.80,611.20 510.00,611.60"/>
    </edge>
    <edge id=":4_5" function="internal">
        <lane id=":4_5_0" index="0" speed="15.28" length="2.34" shape="510.00,611.60 509.20,611.20 508.40,610.00"/>
    </edge>
    <edge id=":51_0" function="internal">
        <lane id=":51_0_0" index="0" speed="15.28" length="4.67" shape="390.00,511.60 388.80,510.80 388.40,510.00 388.80,509.20 390.00,508.40"/>
    </edge>
    <edge id=":52_0" function="internal">
        <lane id=":52_0_0" index="0" speed="15.28" length="4.67" shape="620.00,508.40 621.20,509.20 621.60,510.00 621.20,510.80 620.00,511.60"/>
    </edge>
    <edge id=":53_0" function="internal">
        <lane id=":53_0_0" index="0" speed="15.28" length="4.67" shape="508.40,400.00 509.20,398.80 510.00,398.40 510.80,398.80 511.60,400.00"/>
    </edge>
    <edge id=":54_0" function="internal">
        <lane id=":54_0_0" index="0" speed="15.28" length="4.67" shape="511.60,620.00 510.80,621.20 510.00,621.60 509.20,621.20 508.40,620.00"/>
    </edge>

    <edge id="1i" from="1" to="0" priority="78" type="highway.tertiary">
        <lane id="1i_0" index="0" speed="19.44" length="102.80" shape="400.00,508.40 502.80,508.40"/>
    </edge>
    <edge id="1o" from="0" to="1" priority="46">
        <lane id="1o_0" index="0" speed="11.11" length="102.80" shape="502.80,511.60 400.00,511.60"/>
    </edge>
    <edge id="2i" from="2" to="0" priority="78">
        <lane id="2i_0" index="0" speed="19.44" length="92.80" shape="610.00,511.60 517.20,511.60"/>
    </edge>
    <edge id="2o" from="0" to="2" priority="46">
        <lane id="2o_0" index="0" speed="11.11" length="92.80" shape="517.20,508.40 610.00,508.40"/>
    </edge>
    <edge id="3i" from="3" to="0" priority="78">
        <lane id="3i_0" index="0" speed="19.44" length="92.80" shape="511.60,410.00 511.60,502.80"/>
    </edge>
    <edge id="3o" from="0" to="3" priority="46">
        <lane id="3o_0" index="0" speed="11.11" length="92.80" shape="508.40,502.80 508.40,410.00"/>
    </edge>
    <edge id="4i" from="4" to="0" priority="78">
        <lane id="4i_0" index="0" speed="19.44" length="92.80" shape="508.40,610.00 508.40,517.20"/>
    </edge>
    <edge id="4o" from="0" to="4" priority="46">
        <lane id="4o_0" index="0" speed="11.11" length="92.80" shape="511.60,517.20 511.60,610.00"/>
    </edge>
    <edge id="51i" from="1" to="51" priority="78">
        <lane id="51i_0" index="0" speed="19.44" length="10.00" shape="400.00,511.60 390.00,511.60"/>
    </edge>
    <edge id="51o" from="51" to="1" priority="46">
        <lane id="51o_0" index="0" speed="11.11" length="10.00" shape="390.00,508.40 400.00,508.40"/>
    </edge>
    <edge id="52i" from="2" to="52" priority="78">
        <lane id="52i_0" index="0" speed="19.44" length="10.00" shape="610.00,508.40 620.00,508.40"/>
    </edge>
    <edge id="52o" from="52" to="2" priority="46">
        <lane id="52o_0" index="0" speed="11.11" length="10.00" shape="620.00,511.60 610.00,511.60"/>
    </edge>
    <edge id="53i" from="3" to="53" priority="78">
        <lane id="53i_0" index="0" speed="19.44" length="10.00" shape="508.40,410.00 508.40,400.00"/>
    </edge>
    <edge id="53o" from="53" to="3" priority="46">
        <lane id="53o_0" index="0" speed="11.11" length="10.00" shape="511.60,400.00 511.60,410.00"/>
    </edge>
    <edge id="54i" from="4" to="54" priority="78">
        <lane id="54i_0" index="0" speed="19.44" length="10.00" shape="511.60,610.00 511.60,620.00"/>
    </edge>
    <edge id="54o" from="54" to="4" priority="46">
        <lane id="54o_0" index="0" speed="11.11" length="10.00" shape="508.40,620.00 508.40,610.00"/>
    </edge>

    <junction id="0" type="left_before_right" x="510.00" y="510.00" incLanes="4i_0 2i_0 3i_0 1i_0" intLanes=":0_0_0 :0_1_0 :0_2_0 :0_3_0 :0_4_0 :0_5_0 :0_6_0 :0_7_0 :0_8_0 :0_9_0 :0_10_0 :0_11_0" shape="506.80,517.20 513.20,517.20 517.20,513.20 517.20,506.80 513.20,502.80 506.80,502.80 502.80,506.80 502.80,513.20" fringe="outer">
        <request index="0"  response="000100010000" foes="000100010000" cont="0"/>
        <request index="1"  response="000100110000" foes="111100110000" cont="0"/>
        <request index="2"  response="000000110000" foes="110111110000" cont="0"/>
        <request index="3"  response="100010000000" foes="100010000000" cont="0"/>
        <request index="4"  response="100110000000" foes="100110000111" cont="0"/>
        <request index="5"  response="000110000000" foes="111110000110" cont="0"/>
        <request index="6"  response="010000000100" foes="010000000100" cont="0"/>
        <request index="7"  response="110000000100" foes="110000111100" cont="0"/>
        <request index="8"  response="110000000100" foes="110000110111" cont="0"/>
        <request index="9"  response="000000100010" foes="000000100010" cont="0"/>
        <request index="10" response="000000100110" foes="000111100110" cont="0"/>
        <request index="11" response="000000100110" foes="000110111110" cont="0"/>
    </junction>
    <junction id="1" type="priority" x="400.00" y="510.00" incLanes="1o_0 51o_0" intLanes=":1_0_0 :1_4_0 :1_2_0 :1_5_0" shape="400.00,513.20 400.00,506.80 400.00,513.20">
        <request index="0" response="0000" foes="1000" cont="0"/>
        <request index="1" response="0100" foes="0100" cont="1"/>
        <request index="2" response="0000" foes="0010" cont="0"/>
        <request index="3" response="0001" foes="0001" cont="1"/>
    </junction>
    <junction id="2" type="priority" x="610.00" y="510.00" incLanes="52o_0 2o_0" intLanes=":2_0_0 :2_4_0 :2_2_0 :2_5_0" shape="610.00,513.20 610.00,506.80 610.00,513.20">
        <request index="0" response="0000" foes="1000" cont="0"/>
        <request index="1" response="0100" foes="0100" cont="1"/>
        <request index="2" response="0000" foes="0010" cont="0"/>
        <request index="3" response="0001" foes="0001" cont="1"/>
    </junction>
    <junction id="3" type="priority" x="510.00" y="410.00" incLanes="3o_0 53o_0" intLanes=":3_0_0 :3_4_0 :3_2_0 :3_5_0" shape="506.80,410.00 513.20,410.00 506.80,410.00">
        <request index="0" response="0000" foes="1000" cont="0"/>
        <request index="1" response="0100" foes="0100" cont="1"/>
        <request index="2" response="0000" foes="0010" cont="0"/>
        <request index="3" response="0001" foes="0001" cont="1"/>
    </junction>
    <junction id="4" type="priority" x="510.00" y="610.00" incLanes="54o_0 4o_0" intLanes=":4_0_0 :4_4_0 :4_2_0 :4_5_0" shape="506.80,610.00 513.20,610.00 506.80,610.00">
        <request index="0" response="0000" foes="1000" cont="0"/>
        <request index="1" response="0100" foes="0100" cont="1"/>
        <request index="2" response="0000" foes="0010" cont="0"/>
        <request index="3" response="0001" foes="0001" cont="1"/>
    </junction>
    <junction id="51" type="priority" x="390.00" y="510.00" incLanes="51i_0" intLanes=":51_0_0" shape="390.00,510.00 390.00,513.20 390.00,510.00">
        <request index="0" response="0" foes="0" cont="0"/>
    </junction>
    <junction id="52" type="priority" x="620.00" y="510.00" incLanes="52i_0" intLanes=":52_0_0" shape="620.00,510.00 620.00,506.80 620.00,510.00">
        <request index="0" response="0" foes="0" cont="0"/>
    </junction>
    <junction id="53" type="priority" x="510.00" y="400.00" incLanes="53i_0" intLanes=":53_0_0" shape="510.00,400.00 506.80,400.00 510.00,400.00">
        <request index="0" response="0" foes="0" cont="0"/>
    </junction>
    <junction id="54" type="priority" x="510.00" y="620.00" incLanes="54i_0" intLanes=":54_0_0" shape="510.00,620.00 513.20,620.00 510.00,620.00">
        <request index="0" response="0" foes="0" cont="0"/>
    </junction>

    <junction id=":1_4_0" type="internal" x="398.40" y="510.00" incLanes=":1_1_0 51o_0" intLanes=":1_2_0"/>
    <junction id=":1_5_0" type="internal" x="401.60" y="510.00" incLanes=":1_3_0 1o_0" intLanes=":1_0_0"/>
    <junction id=":2_4_0" type="internal" x="608.40" y="510.00" incLanes=":2_1_0 2o_0" intLanes=":2_2_0"/>
    <junction id=":2_5_0" type="internal" x="611.60" y="510.00" incLanes=":2_3_0 52o_0" intLanes=":2_0_0"/>
    <junction id=":3_4_0" type="internal" x="510.00" y="408.40" incLanes=":3_1_0 53o_0" intLanes=":3_2_0"/>
    <junction id=":3_5_0" type="internal" x="510.00" y="411.60" incLanes=":3_3_0 3o_0" intLanes=":3_0_0"/>
    <junction id=":4_4_0" type="internal" x="510.00" y="608.40" incLanes=":4_1_0 4o_0" intLanes=":4_2_0"/>
    <junction id=":4_5_0" type="internal" x="510.00" y="611.60" incLanes=":4_3_0 54o_0" intLanes=":4_0_0"/>

    <connection from="1i" to="3o" fromLane="0" toLane="0" via=":0_9_0" dir="r" state="="/>
    <connection from="1i" to="2o" fromLane="0" toLane="0" via=":0_10_0" dir="s" state="="/>
    <connection from="1i" to="4o" fromLane="0" toLane="0" via=":0_11_0" dir="l" state="="/>
    <connection from="1o" to="51i" fromLane="0" toLane="0" via=":1_0_0" dir="s" state="M"/>
    <connection from="1o" to="1i" fromLane="0" toLane="0" via=":1_1_0" dir="t" state="m"/>
    <connection from="2i" to="4o" fromLane="0" toLane="0" via=":0_3_0" dir="r" state="="/>
    <connection from="2i" to="1o" fromLane="0" toLane="0" via=":0_4_0" dir="s" state="="/>
    <connection from="2i" to="3o" fromLane="0" toLane="0" via=":0_5_0" dir="l" state="="/>
    <connection from="2o" to="52i" fromLane="0" toLane="0" via=":2_2_0" dir="s" state="M"/>
    <connection from="2o" to="2i" fromLane="0" toLane="0" via=":2_3_0" dir="t" state="m"/>
    <connection from="3i" to="2o" fromLane="0" toLane="0" via=":0_6_0" dir="r" state="="/>
    <connection from="3i" to="4o" fromLane="0" toLane="0" via=":0_7_0" dir="s" state="="/>
    <connection from="3i" to="1o" fromLane="0" toLane="0" via=":0_8_0" dir="l" state="="/>
    <connection from="3o" to="53i" fromLane="0" toLane="0" via=":3_0_0" dir="s" state="M"/>
    <connection from="3o" to="3i" fromLane="0" toLane="0" via=":3_1_0" dir="t" state="m"/>
    <connection from="4i" to="1o" fromLane="0" toLane="0" via=":0_0_0" dir="r" state="="/>
    <connection from="4i" to="3o" fromLane="0" toLane="0" via=":0_1_0" dir="s" state="="/>
    <connection from="4i" to="2o" fromLane="0" toLane="0" via=":0_2_0" dir="l" state="="/>
    <connection from="4o" to="54i" fromLane="0" toLane="0" via=":4_2_0" dir="s" state="M"/>
    <connection from="4o" to="4i" fromLane="0" toLane="0" via=":4_3_0" dir="t" state="m"/>
    <connection from="51i" to="51o" fromLane="0" toLane="0" via=":51_0_0" dir="t" state="M"/>
    <connection from="51o" to="1i" fromLane="0" toLane="0" via=":1_2_0" dir="s" state="M"/>
    <connection from="51o" to="51i" fromLane="0" toLane="0" via=":1_3_0" dir="t" state="m"/>
    <connection from="52i" to="52o" fromLane="0" toLane="0" via=":52_0_0" dir="t" state="M"/>
    <connection from="52o" to="2i" fromLane="0" toLane="0" via=":2_0_0" dir="s" state="M"/>
    <connection from="52o" to="52i" fromLane="0" toLane="0" via=":2_1_0" dir="t" state="m"/>
    <connection from="53i" to="53o" fromLane="0" toLane="0" via=":53_0_0" dir="t" state="M"/>
    <connection from="53o" to="3i" fromLane="0" toLane="0" via=":3_2_0" dir="s" state="M"/>
    <connection from="53o" to="53i" fromLane="0" toLane="0" via=":3_3_0" dir="t" state="m"/>
    <connection from="54i" to="54o" fromLane="0" toLane="0" via=":54_0_0" dir="t" state="M"/>
    <connection from="54o" to="4i" fromLane="0" toLane="0" via=":4_0_0" dir="s" state="M"/>
    <connection from="54o" to="54i" fromLane="0" toLane="0" via=":4_1_0" dir="t" state="m"/>

    <connection from=":0_0" to="1o" fromLane="0" toLane="0" dir="r" state="M"/>
    <connection from=":0_1" to="3o" fromLane="0" toLane="0" dir="s" state="M"/>
    <connection from=":0_2" to="2o" fromLane="0" toLane="0" dir="l" state="M"/>
    <connection from=":0_3" to="4o" fromLane="0" toLane="0" dir="r" state="M"/>
    <connection from=":0_4" to="1o" fromLane="0" toLane="0" dir="s" state="M"/>
    <connection from=":0_5" to="3o" fromLane="0" toLane="0" dir="l" state="M"/>
    <connection from=":0_6" to="2o" fromLane="0" toLane="0" dir="r" state="M"/>
    <connection from=":0_7" to="4o" fromLane="0" toLane="0" dir="s" state="M"/>
    <connection from=":0_8" to="1o" fromLane="0" toLane="0" dir="l" state="M"/>
    <connection from=":0_9" to="3o" fromLane="0" toLane="0" dir="r" state="M"/>
    <connection from=":0_10" to="2o" fromLane="0" toLane="0" dir="s" state="M"/>
    <connection from=":0_11" to="4o" fromLane="0" toLane="0" dir="l" state="M"/>
    <connection from=":1_0" to="51i" fromLane="0" toLane="0" dir="s" state="M"/>
    <connection from=":1_1" to="1i" fromLane="0" toLane="0" via=":1_4_0" dir="t" state="m"/>
    <connection from=":1_4" to="1i" fromLane="0" toLane="0" dir="t" state="M"/>
    <connection from=":1_2" to="1i" fromLane="0" toLane="0" dir="s" state="M"/>
    <connection from=":1_3" to="51i" fromLane="0" toLane="0" via=":1_5_0" dir="t" state="m"/>
    <connection from=":1_5" to="51i" fromLane="0" toLane="0" dir="t" state="M"/>
    <connection from=":2_0" to="2i" fromLane="0" toLane="0" dir="s" state="M"/>
    <connection from=":2_1" to="52i" fromLane="0" toLane="0" via=":2_4_0" dir="t" state="m"/>
    <connection from=":2_4" to="52i" fromLane="0" toLane="0" dir="t" state="M"/>
    <connection from=":2_2" to="52i" fromLane="0" toLane="0" dir="s" state="M"/>
    <connection from=":2_3" to="2i" fromLane="0" toLane="0" via=":2_5_0" dir="t" state="m"/>
    <connection from=":2_5" to="2i" fromLane="0" toLane="0" dir="t" state="M"/>
    <connection from=":3_0" to="53i" fromLane="0" toLane="0" dir="s" state="M"/>
    <connection from=":3_1" to="3i" fromLane="0" toLane="0" via=":3_4_0" dir="t" state="m"/>
    <connection from=":3_4" to="3i" fromLane="0" toLane="0" dir="t" state="M"/>
    <connection from=":3_2" to="3i" fromLane="0" toLane="0" dir="s" state="M"/>
    <connection from=":3_3" to="53i" fromLane="0" toLane="0" via=":3_5_0" dir="t" state="m"/>
    <connection from=":3_5" to="53i" fromLane="0" toLane="0" dir="t" state="M"/>
    <connection from=":4_0" to="4i" fromLane="0" toLane="0" dir="s" state="M"/>
    <connection from=":4_1" to="54i" fromLane="0" toLane="0" via=":4_4_0" dir="t" state="m"/>
    <connection from=":4_4" to="54i" fromLane="0" toLane="0" dir="t" state="M"/>
    <connection from=":4_2" to="54i" fromLane="0" toLane="0" dir="s" state="M"/>
    <connection from=":4_3" to="4i" fromLane="0" toLane="0" via=":4_5_0" dir="t" state="m"/>
    <connection from=":4_5" to="4i" fromLane="0" toLane="0" dir="t" state="M"/>
    <connection from=":51_0" to="51o" fromLane="0" toLane="0" dir="t" state="M"/>
    <connection from=":52_0" to="52o" fromLane="0" toLane="0" dir="t" state="M"/>
    <connection from=":53_0" to="53o" fromLane="0" toLane="0" dir="t" state="M"/>
    <connection from=":54_0" to="54o" fromLane="0" toLane="0" dir="t" state="M"/>

</net>
