<routes>
<vType id='type_car' accel='2' decel='4.5' sigma='0.8' tau='0.6' length='5' minGap='2.5' maxSpeed='12' jmIgnoreFoeProb='1' jmIgnoreJunctionFoeProb='1' impatience='1' guiShape='passenger'/>
<vType id='type_bike' accel='1.2' decel='3' sigma='0.8' tau='0.3' length='1.6' minGap='1' maxSpeed='2.56' jmIgnoreFoeProb='1' jmIgnoreJunctionFoeProb='1' impatience='1' guiShape='bicycle'/>
<route id='up_straight' edges='54o 4i 3o 53i' />
<route id='left_straight' edges='51o 1i 2o 52i' />
<vehicle id="bike_left_0" type="type_bike" route="left_straight" depart="0" />
<vehicle id="car_straight_0" type="type_car" route="up_straight" depart="24" />
<vehicle id="bike_left_1" type="type_bike" route="left_straight" depart="61" />
<vehicle id="car_straight_1" type="type_car" route="up_straight" depart="84" />
<vehicle id="bike_left_2" type="type_bike" route="left_straight" depart="121" />
<vehicle id="car_straight_2" type="type_car" route="up_straight" depart="145" />
<vehicle id="bike_left_3" type="type_bike" route="left_straight" depart="180" />
<vehicle id="car_straight_3" type="type_car" route="up_straight" depart="206" />
<vehicle id="bike_left_4" type="type_bike" route="left_straight" depart="241" />
<vehicle id="car_straight_4" type="type_car" route="up_straight" depart="265" />
<vehicle id="bike_left_5" type="type_bike" route="left_straight" depart="302" />
<vehicle id="car_straight_5" type="type_car" route="up_straight" depart="324" />
<vehicle id="bike_left_6" type="type_bike" route="left_straight" depart="360" />
<vehicle id="car_straight_6" type="type_car" route="up_straight" depart="384" />
<vehicle id="bike_left_7" type="type_bike" route="left_straight" depart="421" />
<vehicle id="car_straight_7" type="type_car" route="up_straight" depart="445" />
<vehicle id="bike_left_8" type="type_bike" route="left_straight" depart="481" />
<vehicle id="car_straight_8" type="type_car" route="up_straight" depart="506" />
<vehicle id="bike_left_9" type="type_bike" route="left_straight" depart="541" />
<vehicle id="car_straight_9" type="type_car" route="up_straight" depart="564" />
<vehicle id="bike_left_10" type="type_bike" route="left_straight" depart="601" />
<vehicle id="car_straight_10" type="type_car" route="up_straight" depart="624" />
<vehicle id="bike_left_11" type="type_bike" route="left_straight" depart="661" />
<vehicle id="car_straight_11" type="type_car" route="up_straight" depart="686" />
<vehicle id="bike_left_12" type="type_bike" route="left_straight" depart="721" />
<vehicle id="car_straight_12" type="type_car" route="up_straight" depart="744" />
<vehicle id="bike_left_13" type="type_bike" route="left_straight" depart="780" />
<vehicle id="car_straight_13" type="type_car" route="up_straight" depart="805" />
<vehicle id="bike_left_14" type="type_bike" route="left_straight" depart="841" />
<vehicle id="car_straight_14" type="type_car" route="up_straight" depart="865" />
<vehicle id="bike_left_15" type="type_bike" route="left_straight" depart="900" />
<vehicle id="car_straight_15" type="type_car" route="up_straight" depart="924" />
<vehicle id="bike_left_16" type="type_bike" route="left_straight" depart="962" />
<vehicle id="car_straight_16" type="type_car" route="up_straight" depart="985" />
<vehicle id="bike_left_17" type="type_bike" route="left_straight" depart="1022" />
<vehicle id="car_straight_17" type="type_car" route="up_straight" depart="1046" />
<vehicle id="bike_left_18" type="type_bike" route="left_straight" depart="1082" />
<vehicle id="car_straight_18" type="type_car" route="up_straight" depart="1105" />
<vehicle id="bike_left_19" type="type_bike" route="left_straight" depart="1141" />
<vehicle id="car_straight_19" type="type_car" route="up_straight" depart="1166" />
<vehicle id="bike_left_20" type="type_bike" route="left_straight" depart="1200" />
<vehicle id="car_straight_20" type="type_car" route="up_straight" depart="1225" />
<vehicle id="bike_left_21" type="type_bike" route="left_straight" depart="1261" />
<vehicle id="car_straight_21" type="type_car" route="up_straight" depart="1284" />
<vehicle id="bike_left_22" type="type_bike" route="left_straight" depart="1320" />
<vehicle id="car_straight_22" type="type_car" route="up_straight" depart="1345" />
<vehicle id="bike_left_23" type="type_bike" route="left_straight" depart="1380" />
<vehicle id="car_straight_23" type="type_car" route="up_straight" depart="1405" />
<vehicle id="bike_left_24" type="type_bike" route="left_straight" depart="1441" />
<vehicle id="car_straight_24" type="type_car" route="up_straight" depart="1464" />
<vehicle id="bike_left_25" type="type_bike" route="left_straight" depart="1500" />
<vehicle id="car_straight_25" type="type_car" route="up_straight" depart="1525" />
<vehicle id="bike_left_26" type="type_bike" route="left_straight" depart="1562" />
<vehicle id="car_straight_26" type="type_car" route="up_straight" depart="1584" />
<vehicle id="bike_left_27" type="type_bike" route="left_straight" depart="1620" />
<vehicle id="car_straight_27" type="type_car" route="up_straight" depart="1645" />
<vehicle id="bike_left_28" type="type_bike" route="left_straight" depart="1680" />
<vehicle id="car_straight_28" type="type_car" route="up_straight" depart="1704" />
<vehicle id="bike_left_29" type="type_bike" route="left_straight" depart="1740" />
<vehicle id="car_straight_29" type="type_car" route="up_straight" depart="1764" />
<vehicle id="bike_left_30" type="type_bike" route="left_straight" depart="1800" />
<vehicle id="car_straight_30" type="type_car" route="up_straight" depart="1824" />
<vehicle id="bike_left_31" type="type_bike" route="left_straight" depart="1860" />
<vehicle id="car_straight_31" type="type_car" route="up_straight" depart="1886" />
<vehicle id="bike_left_32" type="type_bike" route="left_straight" depart="1922" />
<vehicle id="car_straight_32" type="type_car" route="up_straight" depart="1945" />
<vehicle id="bike_left_33" type="type_bike" route="left_straight" depart="1981" />
<vehicle id="car_straight_33" type="type_car" route="up_straight" depart="2004" />
<vehicle id="bike_left_34" type="type_bike" route="left_straight" depart="2040" />
<vehicle id="car_straight_34" type="type_car" route="up_straight" depart="2066" />
<vehicle id="bike_left_35" type="type_bike" route="left_straight" depart="2100" />
<vehicle id="car_straight_35" type="type_car" route="up_straight" depart="2125" />
<vehicle id="bike_left_36" type="type_bike" route="left_straight" depart="2160" />
<vehicle id="car_straight_36" type="type_car" route="up_straight" depart="2185" />
<vehicle id="bike_left_37" type="type_bike" route="left_straight" depart="2222" />
<vehicle id="car_straight_37" type="type_car" route="up_straight" depart="2244" />
<vehicle id="bike_left_38" type="type_bike" route="left_straight" depart="2280" />
<vehicle id="car_straight_38" type="type_car" route="up_straight" depart="2304" />
<vehicle id="bike_left_39" type="type_bike" route="left_straight" depart="2340" />
<vehicle id="car_straight_39" type="type_car" route="up_straight" depart="2365" />
<vehicle id="bike_left_40" type="type_bike" route="left_straight" depart="2400" />
<vehicle id="car_straight_40" type="type_car" route="up_straight" depart="2424" />
<vehicle id="bike_left_41" type="type_bike" route="left_straight" depart="2460" />
<vehicle id="car_straight_41" type="type_car" route="up_straight" depart="2484" />
<vehicle id="bike_left_42" type="type_bike" route="left_straight" depart="2521" />
<vehicle id="car_straight_42" type="type_car" route="up_straight" depart="2544" />
<vehicle id="bike_left_43" type="type_bike" route="left_straight" depart="2582" />
<vehicle id="car_straight_43" type="type_car" route="up_straight" depart="2605" />
<vehicle id="bike_left_44" type="type_bike" route="left_straight" depart="2642" />
<vehicle id="car_straight_44" type="type_car" route="up_straight" depart="2664" />
<vehicle id="bike_left_45" type="type_bike" route="left_straight" depart="2700" />
<vehicle id="car_straight_45" type="type_car" route="up_straight" depart="2724" />
<vehicle id="bike_left_46" type="type_bike" route="left_straight" depart="2761" />
<vehicle id="car_straight_46" type="type_car" route="up_straight" depart="2784" />
<vehicle id="bike_left_47" type="type_bike" route="left_straight" depart="2821" />
<vehicle id="car_straight_47" type="type_car" route="up_straight" depart="2844" />
<vehicle id="bike_left_48" type="type_bike" route="left_straight" depart="2881" />
<vehicle id="car_straight_48" type="type_car" route="up_straight" depart="2905" />
<vehicle id="bike_left_49" type="type_bike" route="left_straight" depart="2940" />
<vehicle id="car_straight_49" type="type_car" route="up_straight" depart="2966" />
<vehicle id="bike_left_50" type="type_bike" route="left_straight" depart="3000" />
<vehicle id="car_straight_50" type="type_car" route="up_straight" depart="3024" />
<vehicle id="bike_left_51" type="type_bike" route="left_straight" depart="3061" />
<vehicle id="car_straight_51" type="type_car" route="up_straight" depart="3085" />
<vehicle id="bike_left_52" type="type_bike" route="left_straight" depart="3120" />
<vehicle id="car_straight_52" type="type_car" route="up_straight" depart="3144" />
<vehicle id="bike_left_53" type="type_bike" route="left_straight" depart="3180" />
<vehicle id="car_straight_53" type="type_car" route="up_straight" depart="3205" />
<vehicle id="bike_left_54" type="type_bike" route="left_straight" depart="3241" />
<vehicle id="car_straight_54" type="type_car" route="up_straight" depart="3265" />
<vehicle id="bike_left_55" type="type_bike" route="left_straight" depart="3300" />
<vehicle id="car_straight_55" type="type_car" route="up_straight" depart="3325" />
<vehicle id="bike_left_56" type="type_bike" route="left_straight" depart="3361" />
<vehicle id="car_straight_56" type="type_car" route="up_straight" depart="3384" />
<vehicle id="bike_left_57" type="type_bike" route="left_straight" depart="3420" />
<vehicle id="car_straight_57" type="type_car" route="up_straight" depart="3444" />
<vehicle id="bike_left_58" type="type_bike" route="left_straight" depart="3480" />
<vehicle id="car_straight_58" type="type_car" route="up_straight" depart="3506" />
<vehicle id="bike_left_59" type="type_bike" route="left_straight" depart="3540" />
<vehicle id="car_straight_59" type="type_car" route="up_straight" depart="3565" />
<vehicle id="bike_left_60" type="type_bike" route="left_straight" depart="3600" />
<vehicle id="car_straight_60" type="type_car" route="up_straight" depart="3626" />
<vehicle id="bike_left_61" type="type_bike" route="left_straight" depart="3661" />
<vehicle id="car_straight_61" type="type_car" route="up_straight" depart="3684" />
<vehicle id="bike_left_62" type="type_bike" route="left_straight" depart="3721" />
<vehicle id="car_straight_62" type="type_car" route="up_straight" depart="3744" />
<vehicle id="bike_left_63" type="type_bike" route="left_straight" depart="3780" />
<vehicle id="car_straight_63" type="type_car" route="up_straight" depart="3804" />
<vehicle id="bike_left_64" type="type_bike" route="left_straight" depart="3840" />
<vehicle id="car_straight_64" type="type_car" route="up_straight" depart="3864" />
<vehicle id="bike_left_65" type="type_bike" route="left_straight" depart="3901" />
<vehicle id="car_straight_65" type="type_car" route="up_straight" depart="3925" />
<vehicle id="bike_left_66" type="type_bike" route="left_straight" depart="3961" />
<vehicle id="car_straight_66" type="type_car" route="up_straight" depart="3984" />
<vehicle id="bike_left_67" type="type_bike" route="left_straight" depart="4020" />
<vehicle id="car_straight_67" type="type_car" route="up_straight" depart="4044" />
<vehicle id="bike_left_68" type="type_bike" route="left_straight" depart="4081" />
<vehicle id="car_straight_68" type="type_car" route="up_straight" depart="4104" />
<vehicle id="bike_left_69" type="type_bike" route="left_straight" depart="4140" />
<vehicle id="car_straight_69" type="type_car" route="up_straight" depart="4164" />
<vehicle id="bike_left_70" type="type_bike" route="left_straight" depart="4200" />
<vehicle id="car_straight_70" type="type_car" route="up_straight" depart="4225" />
<vehicle id="bike_left_71" type="type_bike" route="left_straight" depart="4261" />
<vehicle id="car_straight_71" type="type_car" route="up_straight" depart="4285" />
<vehicle id="bike_left_72" type="type_bike" route="left_straight" depart="4322" />
<vehicle id="car_straight_72" type="type_car" route="up_straight" depart="4344" />
<vehicle id="bike_left_73" type="type_bike" route="left_straight" depart="4380" />
<vehicle id="car_straight_73" type="type_car" route="up_straight" depart="4406" />
<vehicle id="bike_left_74" type="type_bike" route="left_straight" depart="4440" />
<vehicle id="car_straight_74" type="type_car" route="up_straight" depart="4465" />
<vehicle id="bike_left_75" type="type_bike" route="left_straight" depart="4501" />
<vehicle id="car_straight_75" type="type_car" route="up_straight" depart="4525" />
<vehicle id="bike_left_76" type="type_bike" route="left_straight" depart="4560" />
<vehicle id="car_straight_76" type="type_car" route="up_straight" depart="4584" />
<vehicle id="bike_left_77" type="type_bike" route="left_straight" depart="4620" />
<vehicle id="car_straight_77" type="type_car" route="up_straight" depart="4646" />
<vehicle id="bike_left_78" type="type_bike" route="left_straight" depart="4681" />
<vehicle id="car_straight_78" type="type_car" route="up_straight" depart="4705" />
<vehicle id="bike_left_79" type="type_bike" route="left_straight" depart="4740" />
<vehicle id="car_straight_79" type="type_car" route="up_straight" depart="4766" />
<vehicle id="bike_left_80" type="type_bike" route="left_straight" depart="4800" />
<vehicle id="car_straight_80" type="type_car" route="up_straight" depart="4825" />
<vehicle id="bike_left_81" type="type_bike" route="left_straight" depart="4860" />
<vehicle id="car_straight_81" type="type_car" route="up_straight" depart="4885" />
<vehicle id="bike_left_82" type="type_bike" route="left_straight" depart="4921" />
<vehicle id="car_straight_82" type="type_car" route="up_straight" depart="4945" />
<vehicle id="bike_left_83" type="type_bike" route="left_straight" depart="4981" />
<vehicle id="car_straight_83" type="type_car" route="up_straight" depart="5006" />
<vehicle id="bike_left_84" type="type_bike" route="left_straight" depart="5040" />
<vehicle id="car_straight_84" type="type_car" route="up_straight" depart="5065" />
<vehicle id="bike_left_85" type="type_bike" route="left_straight" depart="5101" />
<vehicle id="car_straight_85" type="type_car" route="up_straight" depart="5125" />
<vehicle id="bike_left_86" type="type_bike" route="left_straight" depart="5160" />
<vehicle id="car_straight_86" type="type_car" route="up_straight" depart="5184" />
<vehicle id="bike_left_87" type="type_bike" route="left_straight" depart="5220" />
<vehicle id="car_straight_87" type="type_car" route="up_straight" depart="5244" />
<vehicle id="bike_left_88" type="type_bike" route="left_straight" depart="5282" />
<vehicle id="car_straight_88" type="type_car" route="up_straight" depart="5305" />
<vehicle id="bike_left_89" type="type_bike" route="left_straight" depart="5342" />
<vehicle id="car_straight_89" type="type_car" route="up_straight" depart="5365" />
<vehicle id="bike_left_90" type="type_bike" route="left_straight" depart="5401" />
<vehicle id="car_straight_90" type="type_car" route="up_straight" depart="5426" />
<vehicle id="bike_left_91" type="type_bike" route="left_straight" depart="5460" />
<vehicle id="car_straight_91" type="type_car" route="up_straight" depart="5484" />
<vehicle id="bike_left_92" type="type_bike" route="left_straight" depart="5521" />
<vehicle id="car_straight_92" type="type_car" route="up_straight" depart="5545" />
<vehicle id="bike_left_93" type="type_bike" route="left_straight" depart="5580" />
<vehicle id="car_straight_93" type="type_car" route="up_straight" depart="5604" />
<vehicle id="bike_left_94" type="type_bike" route="left_straight" depart="5640" />
<vehicle id="car_straight_94" type="type_car" route="up_straight" depart="5664" />
<vehicle id="bike_left_95" type="type_bike" route="left_straight" depart="5700" />
<vehicle id="car_straight_95" type="type_car" route="up_straight" depart="5724" />
<vehicle id="bike_left_96" type="type_bike" route="left_straight" depart="5760" />
<vehicle id="car_straight_96" type="type_car" route="up_straight" depart="5785" />
<vehicle id="bike_left_97" type="type_bike" route="left_straight" depart="5820" />
<vehicle id="car_straight_97" type="type_car" route="up_straight" depart="5844" />
<vehicle id="bike_left_98" type="type_bike" route="left_straight" depart="5880" />
<vehicle id="car_straight_98" type="type_car" route="up_straight" depart="5904" />
<vehicle id="bike_left_99" type="type_bike" route="left_straight" depart="5940" />
<vehicle id="car_straight_99" type="type_car" route="up_straight" depart="5964" />
</routes>
