<routes>
<vType id='type_car' accel='2' decel='4.5' sigma='0.8' tau='0.6' length='5' minGap='2.5' maxSpeed='12' jmIgnoreFoeProb='1' jmIgnoreJunctionFoeProb='1' impatience='1' guiShape='passenger'/>
<vType id='type_bike' accel='1.2' decel='3' sigma='0.8' tau='0.3' length='1.6' minGap='1' maxSpeed='2.56' jmIgnoreFoeProb='1' jmIgnoreJunctionFoeProb='1' impatience='1' guiShape='bicycle'/>
<route id='up_straight' edges='54o 4i 3o 53i' />
<route id='left_straight' edges='51o 1i 2o 52i' />
<vehicle id="bike_left_0" type="type_bike" route="left_straight" depart="0" />
<vehicle id="car_straight_0" type="type_car" route="up_straight" depart="29" />
<vehicle id="bike_left_1" type="type_bike" route="left_straight" depart="61" />
<vehicle id="car_straight_1" type="type_car" route="up_straight" depart="89" />
<vehicle id="bike_left_2" type="type_bike" route="left_straight" depart="120" />
<vehicle id="car_straight_2" type="type_car" route="up_straight" depart="150" />
<vehicle id="bike_left_3" type="type_bike" route="left_straight" depart="180" />
<vehicle id="car_straight_3" type="type_car" route="up_straight" depart="209" />
<vehicle id="bike_left_4" type="type_bike" route="left_straight" depart="242" />
<vehicle id="car_straight_4" type="type_car" route="up_straight" depart="271" />
<vehicle id="bike_left_5" type="type_bike" route="left_straight" depart="300" />
<vehicle id="car_straight_5" type="type_car" route="up_straight" depart="331" />
<vehicle id="bike_left_6" type="type_bike" route="left_straight" depart="360" />
<vehicle id="car_straight_6" type="type_car" route="up_straight" depart="389" />
<vehicle id="bike_left_7" type="type_bike" route="left_straight" depart="421" />
<vehicle id="car_straight_7" type="type_car" route="up_straight" depart="449" />
<vehicle id="bike_left_8" type="type_bike" route="left_straight" depart="482" />
<vehicle id="car_straight_8" type="type_car" route="up_straight" depart="510" />
<vehicle id="bike_left_9" type="type_bike" route="left_straight" depart="541" />
<vehicle id="car_straight_9" type="type_car" route="up_straight" depart="570" />
<vehicle id="bike_left_10" type="type_bike" route="left_straight" depart="601" />
<vehicle id="car_straight_10" type="type_car" route="up_straight" depart="629" />
<vehicle id="bike_left_11" type="type_bike" route="left_straight" depart="661" />
<vehicle id="car_straight_11" type="type_car" route="up_straight" depart="689" />
<vehicle id="bike_left_12" type="type_bike" route="left_straight" depart="721" />
<vehicle id="car_straight_12" type="type_car" route="up_straight" depart="751" />
<vehicle id="bike_left_13" type="type_bike" route="left_straight" depart="780" />
<vehicle id="car_straight_13" type="type_car" route="up_straight" depart="809" />
<vehicle id="bike_left_14" type="type_bike" route="left_straight" depart="841" />
<vehicle id="car_straight_14" type="type_car" route="up_straight" depart="869" />
<vehicle id="bike_left_15" type="type_bike" route="left_straight" depart="902" />
<vehicle id="car_straight_15" type="type_car" route="up_straight" depart="930" />
<vehicle id="bike_left_16" type="type_bike" route="left_straight" depart="960" />
<vehicle id="car_straight_16" type="type_car" route="up_straight" depart="989" />
<vehicle id="bike_left_17" type="type_bike" route="left_straight" depart="1021" />
<vehicle id="car_straight_17" type="type_car" route="up_straight" depart="1051" />
<vehicle id="bike_left_18" type="type_bike" route="left_straight" depart="1080" />
<vehicle id="car_straight_18" type="type_car" route="up_straight" depart="1110" />
<vehicle id="bike_left_19" type="type_bike" route="left_straight" depart="1141" />
<vehicle id="car_straight_19" type="type_car" route="up_straight" depart="1170" />
<vehicle id="bike_left_20" type="type_bike" route="left_straight" depart="1200" />
<vehicle id="car_straight_20" type="type_car" route="up_straight" depart="1229" />
<vehicle id="bike_left_21" type="type_bike" route="left_straight" depart="1260" />
<vehicle id="car_straight_21" type="type_car" route="up_straight" depart="1289" />
<vehicle id="bike_left_22" type="type_bike" route="left_straight" depart="1320" />
<vehicle id="car_straight_22" type="type_car" route="up_straight" depart="1350" />
<vehicle id="bike_left_23" type="type_bike" route="left_straight" depart="1380" />
<vehicle id="car_straight_23" type="type_car" route="up_straight" depart="1411" />
<vehicle id="bike_left_24" type="type_bike" route="left_straight" depart="1441" />
<vehicle id="car_straight_24" type="type_car" route="up_straight" depart="1471" />
<vehicle id="bike_left_25" type="type_bike" route="left_straight" depart="1501" />
<vehicle id="car_straight_25" type="type_car" route="up_straight" depart="1529" />
<vehicle id="bike_left_26" type="type_bike" route="left_straight" depart="1560" />
<vehicle id="car_straight_26" type="type_car" route="up_straight" depart="1589" />
<vehicle id="bike_left_27" type="type_bike" route="left_straight" depart="1620" />
<vehicle id="car_straight_27" type="type_car" route="up_straight" depart="1651" />
<vehicle id="bike_left_28" type="type_bike" route="left_straight" depart="1681" />
<vehicle id="car_straight_28" type="type_car" route="up_straight" depart="1711" />
<vehicle id="bike_left_29" type="type_bike" route="left_straight" depart="1740" />
<vehicle id="car_straight_29" type="type_car" route="up_straight" depart="1769" />
<vehicle id="bike_left_30" type="type_bike" route="left_straight" depart="1801" />
<vehicle id="car_straight_30" type="type_car" route="up_straight" depart="1831" />
<vehicle id="bike_left_31" type="type_bike" route="left_straight" depart="1861" />
<vehicle id="car_straight_31" type="type_car" route="up_straight" depart="1890" />
<vehicle id="bike_left_32" type="type_bike" route="left_straight" depart="1921" />
<vehicle id="car_straight_32" type="type_car" route="up_straight" depart="1951" />
<vehicle id="bike_left_33" type="type_bike" route="left_straight" depart="1980" />
<vehicle id="car_straight_33" type="type_car" route="up_straight" depart="2010" />
<vehicle id="bike_left_34" type="type_bike" route="left_straight" depart="2040" />
<vehicle id="car_straight_34" type="type_car" route="up_straight" depart="2070" />
<vehicle id="bike_left_35" type="type_bike" route="left_straight" depart="2102" />
<vehicle id="car_straight_35" type="type_car" route="up_straight" depart="2129" />
<vehicle id="bike_left_36" type="type_bike" route="left_straight" depart="2160" />
<vehicle id="car_straight_36" type="type_car" route="up_straight" depart="2191" />
<vehicle id="bike_left_37" type="type_bike" route="left_straight" depart="2220" />
<vehicle id="car_straight_37" type="type_car" route="up_straight" depart="2250" />
<vehicle id="bike_left_38" type="type_bike" route="left_straight" depart="2282" />
<vehicle id="car_straight_38" type="type_car" route="up_straight" depart="2311" />
<vehicle id="bike_left_39" type="type_bike" route="left_straight" depart="2342" />
<vehicle id="car_straight_39" type="type_car" route="up_straight" depart="2369" />
<vehicle id="bike_left_40" type="type_bike" route="left_straight" depart="2402" />
<vehicle id="car_straight_40" type="type_car" route="up_straight" depart="2430" />
<vehicle id="bike_left_41" type="type_bike" route="left_straight" depart="2461" />
<vehicle id="car_straight_41" type="type_car" route="up_straight" depart="2490" />
<vehicle id="bike_left_42" type="type_bike" route="left_straight" depart="2520" />
<vehicle id="car_straight_42" type="type_car" route="up_straight" depart="2549" />
<vehicle id="bike_left_43" type="type_bike" route="left_straight" depart="2582" />
<vehicle id="car_straight_43" type="type_car" route="up_straight" depart="2611" />
<vehicle id="bike_left_44" type="type_bike" route="left_straight" depart="2642" />
<vehicle id="car_straight_44" type="type_car" route="up_straight" depart="2671" />
<vehicle id="bike_left_45" type="type_bike" route="left_straight" depart="2700" />
<vehicle id="car_straight_45" type="type_car" route="up_straight" depart="2729" />
<vehicle id="bike_left_46" type="type_bike" route="left_straight" depart="2760" />
<vehicle id="car_straight_46" type="type_car" route="up_straight" depart="2789" />
<vehicle id="bike_left_47" type="type_bike" route="left_straight" depart="2820" />
<vehicle id="car_straight_47" type="type_car" route="up_straight" depart="2849" />
<vehicle id="bike_left_48" type="type_bike" route="left_straight" depart="2881" />
<vehicle id="car_straight_48" type="type_car" route="up_straight" depart="2911" />
<vehicle id="bike_left_49" type="type_bike" route="left_straight" depart="2941" />
<vehicle id="car_straight_49" type="type_car" route="up_straight" depart="2971" />
<vehicle id="bike_left_50" type="type_bike" route="left_straight" depart="3000" />
<vehicle id="car_straight_50" type="type_car" route="up_straight" depart="3029" />
<vehicle id="bike_left_51" type="type_bike" route="left_straight" depart="3061" />
<vehicle id="car_straight_51" type="type_car" route="up_straight" depart="3091" />
<vehicle id="bike_left_52" type="type_bike" route="left_straight" depart="3120" />
<vehicle id="car_straight_52" type="type_car" route="up_straight" depart="3150" />
<vehicle id="bike_left_53" type="type_bike" route="left_straight" depart="3182" />
<vehicle id="car_straight_53" type="type_car" route="up_straight" depart="3210" />
<vehicle id="bike_left_54" type="type_bike" route="left_straight" depart="3242" />
<vehicle id="car_straight_54" type="type_car" route="up_straight" depart="3269" />
<vehicle id="bike_left_55" type="type_bike" route="left_straight" depart="3302" />
<vehicle id="car_straight_55" type="type_car" route="up_straight" depart="3330" />
<vehicle id="bike_left_56" type="type_bike" route="left_straight" depart="3362" />
<vehicle id="car_straight_56" type="type_car" route="up_straight" depart="3389" />
<vehicle id="bike_left_57" type="type_bike" route="left_straight" depart="3420" />
<vehicle id="car_straight_57" type="type_car" route="up_straight" depart="3449" />
<vehicle id="bike_left_58" type="type_bike" route="left_straight" depart="3482" />
<vehicle id="car_straight_58" type="type_car" route="up_straight" depart="3509" />
<vehicle id="bike_left_59" type="type_bike" route="left_straight" depart="3542" />
<vehicle id="car_straight_59" type="type_car" route="up_straight" depart="3569" />
<vehicle id="bike_left_60" type="type_bike" route="left_straight" depart="3602" />
<vehicle id="car_straight_60" type="type_car" route="up_straight" depart="3629" />
<vehicle id="bike_left_61" type="type_bike" route="left_straight" depart="3662" />
<vehicle id="car_straight_61" type="type_car" route="up_straight" depart="3690" />
<vehicle id="bike_left_62" type="type_bike" route="left_straight" depart="3721" />
<vehicle id="car_straight_62" type="type_car" route="up_straight" depart="3750" />
<vehicle id="bike_left_63" type="type_bike" route="left_straight" depart="3780" />
<vehicle id="car_straight_63" type="type_car" route="up_straight" depart="3810" />
<vehicle id="bike_left_64" type="type_bike" route="left_straight" depart="3840" />
<vehicle id="car_straight_64" type="type_car" route="up_straight" depart="3869" />
<vehicle id="bike_left_65" type="type_bike" route="left_straight" depart="3901" />
<vehicle id="car_straight_65" type="type_car" route="up_straight" depart="3930" />
<vehicle id="bike_left_66" type="type_bike" route="left_straight" depart="3960" />
<vehicle id="car_straight_66" type="type_car" route="up_straight" depart="3990" />
<vehicle id="bike_left_67" type="type_bike" route="left_straight" depart="4020" />
<vehicle id="car_straight_67" type="type_car" route="up_straight" depart="4049" />
<vehicle id="bike_left_68" type="type_bike" route="left_straight" depart="4081" />
<vehicle id="car_straight_68" type="type_car" route="up_straight" depart="4109" />
<vehicle id="bike_left_69" type="type_bike" route="left_straight" depart="4140" />
<vehicle id="car_straight_69" type="type_car" route="up_straight" depart="4170" />
<vehicle id="bike_left_70" type="type_bike" route="left_straight" depart="4202" />
<vehicle id="car_straight_70" type="type_car" route="up_straight" depart="4229" />
<vehicle id="bike_left_71" type="type_bike" route="left_straight" depart="4260" />
<vehicle id="car_straight_71" type="type_car" route="up_straight" depart="4289" />
<vehicle id="bike_left_72" type="type_bike" route="left_straight" depart="4321" />
<vehicle id="car_straight_72" type="type_car" route="up_straight" depart="4350" />
<vehicle id="bike_left_73" type="type_bike" route="left_straight" depart="4381" />
<vehicle id="car_straight_73" type="type_car" route="up_straight" depart="4409" />
<vehicle id="bike_left_74" type="type_bike" route="left_straight" depart="4440" />
<vehicle id="car_straight_74" type="type_car" route="up_straight" depart="4470" />
<vehicle id="bike_left_75" type="type_bike" route="left_straight" depart="4501" />
<vehicle id="car_straight_75" type="type_car" route="up_straight" depart="4530" />
<vehicle id="bike_left_76" type="type_bike" route="left_straight" depart="4561" />
<vehicle id="car_straight_76" type="type_car" route="up_straight" depart="4590" />
<vehicle id="bike_left_77" type="type_bike" route="left_straight" depart="4620" />
<vehicle id="car_straight_77" type="type_car" route="up_straight" depart="4651" />
<vehicle id="bike_left_78" type="type_bike" route="left_straight" depart="4680" />
<vehicle id="car_straight_78" type="type_car" route="up_straight" depart="4709" />
<vehicle id="bike_left_79" type="type_bike" route="left_straight" depart="4740" />
<vehicle id="car_straight_79" type="type_car" route="up_straight" depart="4769" />
<vehicle id="bike_left_80" type="type_bike" route="left_straight" depart="4802" />
<vehicle id="car_straight_80" type="type_car" route="up_straight" depart="4829" />
<vehicle id="bike_left_81" type="type_bike" route="left_straight" depart="4860" />
<vehicle id="car_straight_81" type="type_car" route="up_straight" depart="4889" />
<vehicle id="bike_left_82" type="type_bike" route="left_straight" depart="4921" />
<vehicle id="car_straight_82" type="type_car" route="up_straight" depart="4950" />
<vehicle id="bike_left_83" type="type_bike" route="left_straight" depart="4982" />
<vehicle id="car_straight_83" type="type_car" route="up_straight" depart="5010" />
<vehicle id="bike_left_84" type="type_bike" route="left_straight" depart="5040" />
<vehicle id="car_straight_84" type="type_car" route="up_straight" depart="5070" />
<vehicle id="bike_left_85" type="type_bike" route="left_straight" depart="5100" />
<vehicle id="car_straight_85" type="type_car" route="up_straight" depart="5130" />
<vehicle id="bike_left_86" type="type_bike" route="left_straight" depart="5161" />
<vehicle id="car_straight_86" type="type_car" route="up_straight" depart="5189" />
<vehicle id="bike_left_87" type="type_bike" route="left_straight" depart="5220" />
<vehicle id="car_straight_87" type="type_car" route="up_straight" depart="5250" />
<vehicle id="bike_left_88" type="type_bike" route="left_straight" depart="5281" />
<vehicle id="car_straight_88" type="type_car" route="up_straight" depart="5309" />
<vehicle id="bike_left_89" type="type_bike" route="left_straight" depart="5341" />
<vehicle id="car_straight_89" type="type_car" route="up_straight" depart="5371" />
<vehicle id="bike_left_90" type="type_bike" route="left_straight" depart="5400" />
<vehicle id="car_straight_90" type="type_car" route="up_straight" depart="5429" />
<vehicle id="bike_left_91" type="type_bike" route="left_straight" depart="5460" />
<vehicle id="car_straight_91" type="type_car" route="up_straight" depart="5489" />
<vehicle id="bike_left_92" type="type_bike" route="left_straight" depart="5521" />
<vehicle id="car_straight_92" type="type_car" route="up_straight" depart="5549" />
<vehicle id="bike_left_93" type="type_bike" route="left_straight" depart="5581" />
<vehicle id="car_straight_93" type="type_car" route="up_straight" depart="5609" />
<vehicle id="bike_left_94" type="type_bike" route="left_straight" depart="5640" />
<vehicle id="car_straight_94" type="type_car" route="up_straight" depart="5669" />
<vehicle id="bike_left_95" type="type_bike" route="left_straight" depart="5701" />
<vehicle id="car_straight_95" type="type_car" route="up_straight" depart="5730" />
<vehicle id="bike_left_96" type="type_bike" route="left_straight" depart="5762" />
<vehicle id="car_straight_96" type="type_car" route="up_straight" depart="5789" />
<vehicle id="bike_left_97" type="type_bike" route="left_straight" depart="5820" />
<vehicle id="car_straight_97" type="type_car" route="up_straight" depart="5850" />
<vehicle id="bike_left_98" type="type_bike" route="left_straight" depart="5881" />
<vehicle id="car_straight_98" type="type_car" route="up_straight" depart="5910" />
<vehicle id="bike_left_99" type="type_bike" route="left_straight" depart="5942" />
<vehicle id="car_straight_99" type="type_car" route="up_straight" depart="5971" />
</routes>
