<?xml version="1.0" encoding="UTF-8"?>

<!-- generated on 2023-08-02 14:07:23 by Eclipse SUMO netedit Version 1.17.0
<configuration xmlns:xsi="http://www.w3.org/2001/XMLSchema-instance" xsi:noNamespaceSchemaLocation="http://sumo.dlr.de/xsd/netconvertConfiguration.xsd">

    <input>
        <sumo-net-file value="simulationData/cross.net.xml"/>
    </input>

    <output>
        <output-file value="simulationData/cross.net.xml"/>
    </output>

    <processing>
        <geometry.min-radius.fix.railways value="false"/>
        <geometry.max-grade.fix value="false"/>
        <offset.disable-normalization value="true"/>
        <lefthand value="0"/>
    </processing>

    <junctions>
        <no-turnarounds value="true"/>
        <junctions.corner-detail value="0"/>
        <junctions.limit-turn-speed value="-1.00"/>
        <rectangular-lane-cut value="0"/>
    </junctions>

    <pedestrian>
        <walkingareas value="0"/>
    </pedestrian>

</configuration>
-->

<net version="1.16" xmlns:xsi="http://www.w3.org/2001/XMLSchema-instance" xsi:noNamespaceSchemaLocation="http://sumo.dlr.de/xsd/net_file.xsd">

    <location netOffset="510.00,510.00" convBoundary="429.71,400.00,620.00,568.62" origBoundary="-510.00,-510.00,510.00,510.00" projParameter="!"/>

    <edge id=":0_0" function="internal">
        <lane id=":0_0_0" index="0" speed="15.28" length="10.67" shape="517.20,511.60 514.47,511.98 512.28,513.14 510.63,515.05 509.51,517.74"/>
    </edge>
    <edge id=":0_1" function="internal">
        <lane id=":0_1_0" index="0" speed="15.28" length="15.18" shape="517.20,511.60 513.42,511.52 509.62,511.27 505.83,510.88 502.08,510.36"/>
    </edge>
    <edge id=":0_2" function="internal">
        <lane id=":0_2_0" index="0" speed="15.28" length="14.68" shape="517.20,511.60 513.35,511.01 510.60,509.25 508.95,506.31 508.40,502.20"/>
    </edge>
    <edge id=":0_3" function="internal">
        <lane id=":0_3_0" index="0" speed="15.28" length="9.52" shape="511.60,502.20 511.95,504.91 513.00,506.85 514.75,508.01 517.20,508.40"/>
    </edge>
    <edge id=":0_4" function="internal">
        <lane id=":0_4_0" index="0" speed="15.28" length="15.73" shape="511.60,502.20 511.46,506.06 511.06,510.04 510.40,513.98 509.51,517.74"/>
    </edge>
    <edge id=":0_5" function="internal">
        <lane id=":0_5_0" index="0" speed="15.28" length="14.88" shape="511.60,502.20 511.01,506.34 509.22,509.08 506.25,510.42 502.08,510.36"/>
    </edge>
    <edge id=":0_6" function="internal">
        <lane id=":0_6_0" index="0" speed="15.28" length="9.04" shape="502.61,507.09 505.14,507.16 506.95,506.37 508.04,504.72 508.40,502.20"/>
    </edge>
    <edge id=":0_7" function="internal">
        <lane id=":0_7_0" index="0" speed="15.28" length="14.67" shape="502.61,507.09 506.26,507.66 509.88,508.07 513.50,508.32 517.20,508.40"/>
    </edge>
    <edge id=":0_8" function="internal">
        <lane id=":0_8_0" index="0" speed="15.28" length="14.82" shape="502.61,507.09 506.57,508.37 509.04,510.57 510.02,513.69 509.51,517.74"/>
    </edge>
    <edge id=":0_9" function="internal">
        <lane id=":0_9_0" index="0" speed="15.28" length="9.12" shape="506.32,516.85 506.67,514.36 506.08,512.45 504.55,511.11 502.08,510.36"/>
    </edge>
    <edge id=":0_10" function="internal">
        <lane id=":0_10_0" index="0" speed="15.28" length="14.85" shape="506.32,516.85 507.24,513.24 507.89,509.60 508.27,505.92 508.40,502.20"/>
    </edge>
    <edge id=":0_11" function="internal">
        <lane id=":0_11_0" index="0" speed="15.28" length="14.91" shape="506.32,516.85 507.93,513.15 510.28,510.51 513.37,508.93 517.20,508.40"/>
    </edge>
    <edge id=":1_0" function="internal">
        <lane id=":1_0_0" index="0" speed="15.28" length="1.74" shape="441.84,459.15 441.65,458.67 441.54,458.33 441.49,457.98 441.47,457.46"/>
    </edge>
    <edge id=":1_1" function="internal">
        <lane id=":1_1_0" index="0" speed="15.28" length="1.45" shape="441.84,459.15 442.11,457.73"/>
    </edge>
    <edge id=":1_4" function="internal">
        <lane id=":1_4_0" index="0" speed="15.28" length="3.24" shape="442.11,457.73 442.69,457.04 443.58,457.10 444.79,457.89"/>
    </edge>
    <edge id=":1_2" function="internal">
        <lane id=":1_2_0" index="0" speed="15.28" length="0.58" shape="444.66,457.33 444.67,457.50 444.69,457.62 444.73,457.73 444.79,457.89"/>
    </edge>
    <edge id=":1_3" function="internal">
        <lane id=":1_3_0" index="0" speed="15.28" length="1.44" shape="444.66,457.33 443.91,458.56"/>
    </edge>
    <edge id=":1_5" function="internal">
        <lane id=":1_5_0" index="0" speed="15.28" length="3.23" shape="443.91,458.56 443.13,458.99 442.32,458.63 441.47,457.46"/>
    </edge>
    <edge id=":2_0" function="internal">
        <lane id=":2_0_0" index="0" speed="15.28" length="0.10" shape="610.00,511.60 610.00,511.60"/>
    </edge>
    <edge id=":2_1" function="internal">
        <lane id=":2_1_0" index="0" speed="15.28" length="2.34" shape="610.00,511.60 608.80,510.80 608.40,510.00"/>
    </edge>
    <edge id=":2_4" function="internal">
        <lane id=":2_4_0" index="0" speed="15.28" length="2.34" shape="608.40,510.00 608.80,509.20 610.00,508.40"/>
    </edge>
    <edge id=":2_2" function="internal">
        <lane id=":2_2_0" index="0" speed="15.28" length="0.10" shape="610.00,508.40 610.00,508.40"/>
    </edge>
    <edge id=":2_3" function="internal">
        <lane id=":2_3_0" index="0" speed="15.28" length="2.34" shape="610.00,508.40 611.20,509.20 611.60,510.00"/>
    </edge>
    <edge id=":2_5" function="internal">
        <lane id=":2_5_0" index="0" speed="15.28" length="2.34" shape="611.60,510.00 611.20,510.80 610.00,511.60"/>
    </edge>
    <edge id=":3_0" function="internal">
        <lane id=":3_0_0" index="0" speed="15.28" length="0.10" shape="508.40,410.00 508.40,410.00"/>
    </edge>
    <edge id=":3_1" function="internal">
        <lane id=":3_1_0" index="0" speed="15.28" length="2.34" shape="508.40,410.00 509.20,408.80 510.00,408.40"/>
    </edge>
    <edge id=":3_4" function="internal">
        <lane id=":3_4_0" index="0" speed="15.28" length="2.34" shape="510.00,408.40 510.80,408.80 511.60,410.00"/>
    </edge>
    <edge id=":3_2" function="internal">
        <lane id=":3_2_0" index="0" speed="15.28" length="0.10" shape="511.60,410.00 511.60,410.00"/>
    </edge>
    <edge id=":3_3" function="internal">
        <lane id=":3_3_0" index="0" speed="15.28" length="2.34" shape="511.60,410.00 510.80,411.20 510.00,411.60"/>
    </edge>
    <edge id=":3_5" function="internal">
        <lane id=":3_5_0" index="0" speed="15.28" length="2.34" shape="510.00,411.60 509.20,411.20 508.40,410.00"/>
    </edge>
    <edge id=":4_0" function="internal">
        <lane id=":4_0_0" index="0" speed="15.28" length="1.49" shape="456.52,570.00 456.10,570.13 455.80,570.19 455.50,570.22 455.06,570.22"/>
    </edge>
    <edge id=":4_1" function="internal">
        <lane id=":4_1_0" index="0" speed="15.28" length="1.44" shape="456.52,570.00 455.14,569.59"/>
    </edge>
    <edge id=":4_4" function="internal">
        <lane id=":4_4_0" index="0" speed="15.28" length="3.23" shape="455.14,569.59 454.52,568.95 454.66,568.07 455.57,566.94"/>
    </edge>
    <edge id=":4_2" function="internal">
        <lane id=":4_2_0" index="0" speed="15.28" length="0.50" shape="455.08,567.02 455.23,567.02 455.33,567.01 455.43,566.99 455.57,566.94"/>
    </edge>
    <edge id=":4_3" function="internal">
        <lane id=":4_3_0" index="0" speed="15.28" length="1.44" shape="455.08,567.02 456.28,567.83"/>
    </edge>
    <edge id=":4_5" function="internal">
        <lane id=":4_5_0" index="0" speed="15.28" length="3.23" shape="456.28,567.83 456.67,568.63 456.26,569.43 455.06,570.22"/>
    </edge>
    <edge id=":51_0" function="internal">
        <lane id=":51_0_0" index="0" speed="15.28" length="4.67" shape="440.61,436.66 441.36,435.42 442.14,434.99 442.96,435.36 443.81,436.52"/>
    </edge>
    <edge id=":52_0" function="internal">
        <lane id=":52_0_0" index="0" speed="15.28" length="4.67" shape="620.00,508.40 621.20,509.20 621.60,510.00 621.20,510.80 620.00,511.60"/>
    </edge>
    <edge id=":53_0" function="internal">
        <lane id=":53_0_0" index="0" speed="15.28" length="4.67" shape="508.40,400.00 509.20,398.80 510.00,398.40 510.80,398.80 511.60,400.00"/>
    </edge>
    <edge id=":54_0" function="internal">
        <lane id=":54_0_0" index="0" speed="15.28" length="4.67" shape="429.70,570.01 428.50,569.20 428.11,568.40 428.52,567.60 429.72,566.81"/>
    </edge>

    <edge id="1i" from="1" to="0" priority="78" type="highway.tertiary" shape="443.09,457.98 452.72,480.60 466.25,496.43 488.21,506.22 510.00,510.00">
        <lane id="1i_0" index="0" speed="19.44" length="81.59" shape="444.79,457.89 454.10,479.75 467.23,495.12 488.68,504.68 502.61,507.09"/>
    </edge>
    <edge id="1o" from="0" to="1" priority="46" shape="510.00,510.00 488.10,506.50 467.77,497.13 452.24,480.43 443.09,457.98">
        <lane id="1o_0" index="0" speed="11.11" length="84.90" shape="502.08,510.36 487.63,508.05 466.81,498.45 450.87,481.31 441.84,459.15"/>
    </edge>
    <edge id="2i" from="2" to="0" priority="78">
        <lane id="2i_0" index="0" speed="19.44" length="92.80" shape="610.00,511.60 517.20,511.60"/>
    </edge>
    <edge id="2o" from="0" to="2" priority="46">
        <lane id="2o_0" index="0" speed="11.11" length="92.80" shape="517.20,508.40 610.00,508.40"/>
    </edge>
    <edge id="3i" from="3" to="0" priority="78">
        <lane id="3i_0" index="0" speed="19.44" length="92.20" shape="511.60,410.00 511.60,502.20"/>
    </edge>
    <edge id="3o" from="0" to="3" priority="46">
        <lane id="3o_0" index="0" speed="11.11" length="92.20" shape="508.40,502.20 508.40,410.00"/>
    </edge>
    <edge id="4i" from="4" to="0" priority="78" shape="455.57,568.62 477.35,561.83 493.81,550.08 503.40,532.45 510.00,510.00">
        <lane id="4i_0" index="0" speed="19.44" length="76.80" shape="455.57,566.94 476.63,560.38 492.58,548.99 501.91,531.84 506.32,516.85"/>
    </edge>
    <edge id="4o" from="0" to="4" priority="46" shape="510.00,510.00 503.72,532.56 493.74,550.39 477.52,561.88 455.57,568.62">
        <lane id="4o_0" index="0" speed="11.11" length="80.21" shape="509.51,517.74 505.21,533.17 494.96,551.49 478.24,563.33 456.52,570.00"/>
    </edge>
    <edge id="51i" from="1" to="51" priority="78">
        <lane id="51i_0" index="0" speed="19.44" length="20.82" shape="441.47,457.46 440.61,436.66"/>
    </edge>
    <edge id="51o" from="51" to="1" priority="46">
        <lane id="51o_0" index="0" speed="11.11" length="20.82" shape="443.81,436.52 444.66,457.33"/>
    </edge>
    <edge id="52i" from="2" to="52" priority="78">
        <lane id="52i_0" index="0" speed="19.44" length="10.00" shape="610.00,508.40 620.00,508.40"/>
    </edge>
    <edge id="52o" from="52" to="2" priority="46">
        <lane id="52o_0" index="0" speed="11.11" length="10.00" shape="620.00,511.60 610.00,511.60"/>
    </edge>
    <edge id="53i" from="3" to="53" priority="78">
        <lane id="53i_0" index="0" speed="19.44" length="10.00" shape="508.40,410.00 508.40,400.00"/>
    </edge>
    <edge id="53o" from="53" to="3" priority="46">
        <lane id="53o_0" index="0" speed="11.11" length="10.00" shape="511.60,400.00 511.60,410.00"/>
    </edge>
    <edge id="54i" from="4" to="54" priority="78">
        <lane id="54i_0" index="0" speed="19.44" length="25.36" shape="455.06,570.22 429.70,570.01"/>
    </edge>
    <edge id="54o" from="54" to="4" priority="46">
        <lane id="54o_0" index="0" speed="11.11" length="25.36" shape="429.72,566.81 455.08,567.02"/>
    </edge>

    <junction id="0" type="left_before_right" x="510.00" y="510.00" incLanes="2i_0 3i_0 1i_0 4i_0" intLanes=":0_0_0 :0_1_0 :0_2_0 :0_3_0 :0_4_0 :0_5_0 :0_6_0 :0_7_0 :0_8_0 :0_9_0 :0_10_0 :0_11_0" shape="517.20,513.20 517.20,506.80 513.20,502.20 506.80,502.20 502.86,505.51 501.83,511.94 504.78,516.42 511.05,518.17" fringe="outer">
        <request index="0"  response="000100010000" foes="000100010000" cont="0"/>
        <request index="1"  response="000100110000" foes="111100110000" cont="0"/>
        <request index="2"  response="000000110000" foes="110111110000" cont="0"/>
        <request index="3"  response="100010000000" foes="100010000000" cont="0"/>
        <request index="4"  response="100110000000" foes="100110000111" cont="0"/>
        <request index="5"  response="100110000000" foes="111110000110" cont="0"/>
        <request index="6"  response="010000000100" foes="010000000100" cont="0"/>
        <request index="7"  response="110000000100" foes="110000111100" cont="0"/>
        <request index="8"  response="110000000100" foes="110000110111" cont="0"/>
        <request index="9"  response="000000100010" foes="000000100010" cont="0"/>
        <request index="10" response="000000100110" foes="000111100110" cont="0"/>
        <request index="11" response="000000000110" foes="000110111110" cont="0"/>
    </junction>
    <junction id="1" type="priority" x="443.09" y="457.98" incLanes="1o_0 51o_0" intLanes=":1_0_0 :1_4_0 :1_2_0 :1_5_0" shape="440.37,459.77 446.26,457.26 439.87,457.53">
        <request index="0" response="0000" foes="1000" cont="0"/>
        <request index="1" response="0100" foes="0100" cont="1"/>
        <request index="2" response="0000" foes="0010" cont="0"/>
        <request index="3" response="0001" foes="0001" cont="1"/>
    </junction>
    <junction id="2" type="priority" x="610.00" y="510.00" incLanes="52o_0 2o_0" intLanes=":2_0_0 :2_4_0 :2_2_0 :2_5_0" shape="610.00,513.20 610.00,506.80 610.00,513.20">
        <request index="0" response="0000" foes="1000" cont="0"/>
        <request index="1" response="0100" foes="0100" cont="1"/>
        <request index="2" response="0000" foes="0010" cont="0"/>
        <request index="3" response="0001" foes="0001" cont="1"/>
    </junction>
    <junction id="3" type="priority" x="510.00" y="410.00" incLanes="3o_0 53o_0" intLanes=":3_0_0 :3_4_0 :3_2_0 :3_5_0" shape="506.80,410.00 513.20,410.00 506.80,410.00">
        <request index="0" response="0000" foes="1000" cont="0"/>
        <request index="1" response="0100" foes="0100" cont="1"/>
        <request index="2" response="0000" foes="0010" cont="0"/>
        <request index="3" response="0001" foes="0001" cont="1"/>
    </junction>
    <junction id="4" type="priority" x="455.57" y="568.62" incLanes="4o_0 54o_0" intLanes=":4_0_0 :4_4_0 :4_2_0 :4_5_0" shape="457.00,571.53 455.10,565.42 455.04,571.82">
        <request index="0" response="0000" foes="1000" cont="0"/>
        <request index="1" response="0100" foes="0100" cont="1"/>
        <request index="2" response="0000" foes="0010" cont="0"/>
        <request index="3" response="0001" foes="0001" cont="1"/>
    </junction>
    <junction id="51" type="priority" x="442.21" y="436.59" incLanes="51i_0" intLanes=":51_0_0" shape="442.21,436.59 439.01,436.72 442.21,436.59">
        <request index="0" response="0" foes="0" cont="0"/>
    </junction>
    <junction id="52" type="priority" x="620.00" y="510.00" incLanes="52i_0" intLanes=":52_0_0" shape="620.00,510.00 620.00,506.80 620.00,510.00">
        <request index="0" response="0" foes="0" cont="0"/>
    </junction>
    <junction id="53" type="priority" x="510.00" y="400.00" incLanes="53i_0" intLanes=":53_0_0" shape="510.00,400.00 506.80,400.00 510.00,400.00">
        <request index="0" response="0" foes="0" cont="0"/>
    </junction>
    <junction id="54" type="priority" x="429.71" y="568.41" incLanes="54i_0" intLanes=":54_0_0" shape="429.71,568.41 429.68,571.61 429.71,568.41">
        <request index="0" response="0" foes="0" cont="0"/>
    </junction>

    <junction id=":1_4_0" type="internal" x="442.11" y="457.73" incLanes=":1_1_0 51o_0" intLanes=":1_2_0"/>
    <junction id=":1_5_0" type="internal" x="443.91" y="458.56" incLanes=":1_3_0 1o_0" intLanes=":1_0_0"/>
    <junction id=":2_4_0" type="internal" x="608.40" y="510.00" incLanes=":2_1_0 2o_0" intLanes=":2_2_0"/>
    <junction id=":2_5_0" type="internal" x="611.60" y="510.00" incLanes=":2_3_0 52o_0" intLanes=":2_0_0"/>
    <junction id=":3_4_0" type="internal" x="510.00" y="408.40" incLanes=":3_1_0 53o_0" intLanes=":3_2_0"/>
    <junction id=":3_5_0" type="internal" x="510.00" y="411.60" incLanes=":3_3_0 3o_0" intLanes=":3_0_0"/>
    <junction id=":4_4_0" type="internal" x="455.14" y="569.59" incLanes=":4_1_0 54o_0" intLanes=":4_2_0"/>
    <junction id=":4_5_0" type="internal" x="456.28" y="567.83" incLanes=":4_3_0 4o_0" intLanes=":4_0_0"/>

    <connection from="1i" to="3o" fromLane="0" toLane="0" via=":0_6_0" dir="r" state="="/>
    <connection from="1i" to="2o" fromLane="0" toLane="0" via=":0_7_0" dir="s" state="="/>
    <connection from="1i" to="4o" fromLane="0" toLane="0" via=":0_8_0" dir="l" state="="/>
    <connection from="1o" to="51i" fromLane="0" toLane="0" via=":1_0_0" dir="s" state="M"/>
    <connection from="1o" to="1i" fromLane="0" toLane="0" via=":1_1_0" dir="t" state="m"/>
    <connection from="2i" to="4o" fromLane="0" toLane="0" via=":0_0_0" dir="r" state="="/>
    <connection from="2i" to="1o" fromLane="0" toLane="0" via=":0_1_0" dir="s" state="="/>
    <connection from="2i" to="3o" fromLane="0" toLane="0" via=":0_2_0" dir="l" state="="/>
    <connection from="2o" to="52i" fromLane="0" toLane="0" via=":2_2_0" dir="s" state="M"/>
    <connection from="2o" to="2i" fromLane="0" toLane="0" via=":2_3_0" dir="t" state="m"/>
    <connection from="3i" to="2o" fromLane="0" toLane="0" via=":0_3_0" dir="r" state="="/>
    <connection from="3i" to="4o" fromLane="0" toLane="0" via=":0_4_0" dir="s" state="="/>
    <connection from="3i" to="1o" fromLane="0" toLane="0" via=":0_5_0" dir="l" state="="/>
    <connection from="3o" to="53i" fromLane="0" toLane="0" via=":3_0_0" dir="s" state="M"/>
    <connection from="3o" to="3i" fromLane="0" toLane="0" via=":3_1_0" dir="t" state="m"/>
    <connection from="4i" to="1o" fromLane="0" toLane="0" via=":0_9_0" dir="r" state="="/>
    <connection from="4i" to="3o" fromLane="0" toLane="0" via=":0_10_0" dir="s" state="="/>
    <connection from="4i" to="2o" fromLane="0" toLane="0" via=":0_11_0" dir="l" state="="/>
    <connection from="4o" to="54i" fromLane="0" toLane="0" via=":4_0_0" dir="s" state="M"/>
    <connection from="4o" to="4i" fromLane="0" toLane="0" via=":4_1_0" dir="t" state="m"/>
    <connection from="51i" to="51o" fromLane="0" toLane="0" via=":51_0_0" dir="t" state="M"/>
    <connection from="51o" to="1i" fromLane="0" toLane="0" via=":1_2_0" dir="s" state="M"/>
    <connection from="51o" to="51i" fromLane="0" toLane="0" via=":1_3_0" dir="t" state="m"/>
    <connection from="52i" to="52o" fromLane="0" toLane="0" via=":52_0_0" dir="t" state="M"/>
    <connection from="52o" to="2i" fromLane="0" toLane="0" via=":2_0_0" dir="s" state="M"/>
    <connection from="52o" to="52i" fromLane="0" toLane="0" via=":2_1_0" dir="t" state="m"/>
    <connection from="53i" to="53o" fromLane="0" toLane="0" via=":53_0_0" dir="t" state="M"/>
    <connection from="53o" to="3i" fromLane="0" toLane="0" via=":3_2_0" dir="s" state="M"/>
    <connection from="53o" to="53i" fromLane="0" toLane="0" via=":3_3_0" dir="t" state="m"/>
    <connection from="54i" to="54o" fromLane="0" toLane="0" via=":54_0_0" dir="t" state="M"/>
    <connection from="54o" to="4i" fromLane="0" toLane="0" via=":4_2_0" dir="s" state="M"/>
    <connection from="54o" to="54i" fromLane="0" toLane="0" via=":4_3_0" dir="t" state="m"/>

    <connection from=":0_0" to="4o" fromLane="0" toLane="0" dir="r" state="M"/>
    <connection from=":0_1" to="1o" fromLane="0" toLane="0" dir="s" state="M"/>
    <connection from=":0_2" to="3o" fromLane="0" toLane="0" dir="l" state="M"/>
    <connection from=":0_3" to="2o" fromLane="0" toLane="0" dir="r" state="M"/>
    <connection from=":0_4" to="4o" fromLane="0" toLane="0" dir="s" state="M"/>
    <connection from=":0_5" to="1o" fromLane="0" toLane="0" dir="l" state="M"/>
    <connection from=":0_6" to="3o" fromLane="0" toLane="0" dir="r" state="M"/>
    <connection from=":0_7" to="2o" fromLane="0" toLane="0" dir="s" state="M"/>
    <connection from=":0_8" to="4o" fromLane="0" toLane="0" dir="l" state="M"/>
    <connection from=":0_9" to="1o" fromLane="0" toLane="0" dir="r" state="M"/>
    <connection from=":0_10" to="3o" fromLane="0" toLane="0" dir="s" state="M"/>
    <connection from=":0_11" to="2o" fromLane="0" toLane="0" dir="l" state="M"/>
    <connection from=":1_0" to="51i" fromLane="0" toLane="0" dir="s" state="M"/>
    <connection from=":1_1" to="1i" fromLane="0" toLane="0" via=":1_4_0" dir="t" state="m"/>
    <connection from=":1_4" to="1i" fromLane="0" toLane="0" dir="t" state="M"/>
    <connection from=":1_2" to="1i" fromLane="0" toLane="0" dir="s" state="M"/>
    <connection from=":1_3" to="51i" fromLane="0" toLane="0" via=":1_5_0" dir="t" state="m"/>
    <connection from=":1_5" to="51i" fromLane="0" toLane="0" dir="t" state="M"/>
    <connection from=":2_0" to="2i" fromLane="0" toLane="0" dir="s" state="M"/>
    <connection from=":2_1" to="52i" fromLane="0" toLane="0" via=":2_4_0" dir="t" state="m"/>
    <connection from=":2_4" to="52i" fromLane="0" toLane="0" dir="t" state="M"/>
    <connection from=":2_2" to="52i" fromLane="0" toLane="0" dir="s" state="M"/>
    <connection from=":2_3" to="2i" fromLane="0" toLane="0" via=":2_5_0" dir="t" state="m"/>
    <connection from=":2_5" to="2i" fromLane="0" toLane="0" dir="t" state="M"/>
    <connection from=":3_0" to="53i" fromLane="0" toLane="0" dir="s" state="M"/>
    <connection from=":3_1" to="3i" fromLane="0" toLane="0" via=":3_4_0" dir="t" state="m"/>
    <connection from=":3_4" to="3i" fromLane="0" toLane="0" dir="t" state="M"/>
    <connection from=":3_2" to="3i" fromLane="0" toLane="0" dir="s" state="M"/>
    <connection from=":3_3" to="53i" fromLane="0" toLane="0" via=":3_5_0" dir="t" state="m"/>
    <connection from=":3_5" to="53i" fromLane="0" toLane="0" dir="t" state="M"/>
    <connection from=":4_0" to="54i" fromLane="0" toLane="0" dir="s" state="M"/>
    <connection from=":4_1" to="4i" fromLane="0" toLane="0" via=":4_4_0" dir="t" state="m"/>
    <connection from=":4_4" to="4i" fromLane="0" toLane="0" dir="t" state="M"/>
    <connection from=":4_2" to="4i" fromLane="0" toLane="0" dir="s" state="M"/>
    <connection from=":4_3" to="54i" fromLane="0" toLane="0" via=":4_5_0" dir="t" state="m"/>
    <connection from=":4_5" to="54i" fromLane="0" toLane="0" dir="t" state="M"/>
    <connection from=":51_0" to="51o" fromLane="0" toLane="0" dir="t" state="M"/>
    <connection from=":52_0" to="52o" fromLane="0" toLane="0" dir="t" state="M"/>
    <connection from=":53_0" to="53o" fromLane="0" toLane="0" dir="t" state="M"/>
    <connection from=":54_0" to="54o" fromLane="0" toLane="0" dir="t" state="M"/>

</net>
